tests/src/test/resources/files/cases/epic91/TestCase12Nodes_16ParallelLines.uct
##C 2007.05.01
##N
##ZBE
BBE1AA1  BE1          0 2 400.00 0.00000 0.00000 0.00000 0.00000 9000.00 -9000.0 9000.00 -9000.0
BBE2AA1  BE2          0 2 400.00 0.00000 0.00000 0.00000 0.00000 9000.00 -9000.0 9000.00 -9000.0
BBE3AA1  BE3          0 2 400.00 0.00000 0.00000 0.00000 0.00000 9000.00 -9000.0 9000.00 -9000.0
##ZDE
DDE1AA1  DE1          0 2 400.00 0.00000 0.00000 0.00000 0.00000 9000.00 -9000.0 9000.00 -9000.0
DDE2AA1  DE2          0 2 400.00 0.00000 0.00000 0.00000 0.00000 9000.00 -9000.0 9000.00 -9000.0
DDE3AA1  DE3          0 2 400.00 0.00000 0.00000 0.00000 0.00000 9000.00 -9000.0 9000.00 -9000.0
##ZFR
FFR1AA1  FR1          0 2 400.00 0.00000 0.00000 -1000.0 0.00000 9000.00 -9000.0 9000.00 -9000.0
FFR2AA1  FR2          0 2 400.00 0.00000 0.00000 0.00000 0.00000 9000.00 -9000.0 9000.00 -9000.0
FFR3AA1  FR3          0 2 400.00 0.00000 0.00000 0.00000 0.00000 9000.00 -9000.0 9000.00 -9000.0
##ZNL
NNL1AA1  NL1          0 2 400.00 1000.00 0.00000 0.00000 0.00000 9000.00 -9000.0 9000.00 -9000.0
NNL2AA1  NL2          0 2 400.00 0.00000 0.00000 0.00000 0.00000 9000.00 -9000.0 9000.00 -9000.0
NNL3AA1  NL3          0 2 400.00 0.00000 0.00000 0.00000 0.00000 9000.00 -9000.0 9000.00 -9000.0
##L
BBE1AA1  BBE2AA1  1 0 0.0000 10.000 0.000000   5000
BBE1AA1  BBE3AA1  1 0 0.0000 10.000 0.000000   5000
FFR1AA1  FFR2AA1  1 0 0.0000 10.000 0.000000   5000
FFR1AA1  FFR3AA1  1 0 0.0000 10.000 0.000000   5000
FFR2AA1  FFR3AA1  1 0 0.0000 10.000 0.000000   5000
DDE1AA1  DDE2AA1  1 0 0.0000 10.000 0.000000   5000
DDE1AA1  DDE3AA1  1 0 0.0000 10.000 0.000000   5000
DDE2AA1  DDE3AA1  1 0 0.0000 10.000 0.000000   5000
NNL1AA1  NNL2AA1  1 0 0.0000 10.000 0.000000   5000
NNL1AA1  NNL3AA1  1 0 0.0000 10.000 0.000000   5000
NNL2AA1  NNL3AA1  1 0 0.0000 10.000 0.000000   5000
FFR2AA1  DDE3AA1  1 0 0.0000 10.000 0.000000   5000
DDE2AA1  NNL3AA1  1 0 0.0000 10.000 0.000000   5000
NNL2AA1  BBE3AA1  1 0 0.0000 10.000 0.000000   5000
NNL2AA1  BBE3AA1  2 0 0.0000 10.000 0.000000   5000
NNL2AA1  BBE3AA1  3 0 0.0000 10.000 0.000000   5000
NNL2AA1  BBE3AA1  4 0 0.0000 10.000 0.000000   5000
NNL2AA1  BBE3AA1  5 0 0.0000 10.000 0.000000   5000
NNL2AA1  BBE3AA1  6 0 0.0000 10.000 0.000000   5000
NNL2AA1  BBE3AA1  7 0 0.0000 10.000 0.000000   5000
NNL2AA1  BBE3AA1  8 0 0.0000 10.000 0.000000   5000
NNL2AA1  BBE3AA1  9 0 0.0000 10.000 0.000000   5000
NNL2AA1  BBE3AA1  A 0 0.0000 10.000 0.000000   5000
NNL2AA1  BBE3AA1  B 0 0.0000 10.000 0.000000   5000
NNL2AA1  BBE3AA1  C 0 0.0000 10.000 0.000000   5000
NNL2AA1  BBE3AA1  D 0 0.0000 10.000 0.000000   5000
NNL2AA1  BBE3AA1  E 0 0.0000 10.000 0.000000   5000
NNL2AA1  BBE3AA1  F 0 0.0000 10.000 0.000000   5000
NNL2AA1  BBE3AA1  G 0 0.0000 10.000 0.000000   5000
BBE2AA1  FFR3AA1  1 0 0.0000 10.000 0.000000   5000
##T
BBE2AA1  BBE3AA1  1 0 400.0 400.0 1000. 0.0000 10.000 0.000000 0.0	     5000 PST
##R
BBE2AA1  BBE3AA1  1                    -0.68 90.00 16 0         SYMM